@<TRIPOS>MOLECULE
1a30_ligand
 31 30 0 0 0
SMALL
GASTEIGER
****
libRbt.so/2013.1/901 2013/11/27
@<TRIPOS>ATOM
      1 N           4.7061   27.9597    5.8996 N.4     1  GLU1        0.2347
      2 CA          5.5766   26.7711    5.6920 C.3     1  GLU1        0.1272
      3 C           7.0368   27.1289    5.9644 C.2     1  GLU1        0.2722
      4 O           7.4843   28.2436    5.6736 O.2     1  GLU1       -0.2690
      5 CB          5.4050   26.2189    4.2747 C.3     1  GLU1        0.0763
      6 CG          5.5504   27.2623    3.1847 C.3     1  GLU1        0.1205
      7 CD          5.2732   26.7158    1.7979 C.2     1  GLU1        0.3651
      8 OE1         4.2941   25.9509    1.6371 O.co2   1  GLU1       -0.2457
      9 OE2         6.0313   27.0669    0.8655 O.co2   1  GLU1       -0.2457
     10 N           7.7576   26.1953    6.5734 N.am    2  ASP2       -0.2933
     11 CA          9.1629   26.3907    6.9041 C.3     2  ASP2        0.1600
     12 C           9.9666   25.2365    6.3318 C.2     2  ASP2        0.2413
     13 O          10.0674   24.1717    6.9456 O.2     2  ASP2       -0.2733
     14 CB          9.3278   26.4895    8.4185 C.3     2  ASP2        0.1429
     15 CG          8.6707   27.7332    8.9809 C.2     2  ASP2        0.3671
     16 OD1         9.2995   28.8047    8.8997 O.co2   2  ASP2       -0.2456
     17 OD2         7.5174   27.6545    9.4617 O.co2   2  ASP2       -0.2456
     18 N          10.4943   25.4463    5.1293 N.am    3  LEU3       -0.2953
     19 CA         11.2620   24.4265    4.4308 C.3     3  LEU3        0.1758
     20 C          12.7516   24.7165    4.4033 C.2     3  LEU3        0.3822
     21 OXT        13.5362   23.7527    4.2726 O.co2   3  LEU3       -0.2438
     22 CB         10.7290   24.2833    3.0121 C.3     3  LEU3        0.0312
     23 CG          9.2701   23.8426    3.0627 C.3     3  LEU3        0.0022
     24 CD2         8.4623   24.5983    2.0516 C.3     3  LEU3        0.0001
     25 CD1         9.1832   22.3352    2.8746 C.3     3  LEU3        0.0001
     26 O          13.1197   25.9040    4.5141 O.co2   3  LEU3       -0.2438
     27 H1          3.7468   27.7097    5.7167 H       1  GLU1        0.2007
     28 H2          4.9871   28.6960    5.2711 H       1  GLU1        0.2007
     29 H3          4.7944   28.2788    6.8518 H       1  GLU1        0.2007
     30 H           7.3210   25.3283    6.8135 H       2  ASP2        0.1500
     31 H          10.3591   26.3347    4.6904 H       3  LEU3        0.1499
@<TRIPOS>BOND
     1     1    27    1
     2     1    28    1
     3     1    29    1
     4     2     5    1
     5     2     1    1
     6     3     2    1
     7     3     4    2
     8     5     6    1
     9     6     7    1
    10     7     8   ar
    11     7     9   ar
    12    10     3   am
    13    10    30    1
    14    11    14    1
    15    11    10    1
    16    12    11    1
    17    12    13    2
    18    12    18   am
    19    14    15    1
    20    15    16   ar
    21    15    17   ar
    22    18    19    1
    23    18    31    1
    24    19    20    1
    25    19    22    1
    26    20    26   ar
    27    20    21   ar
    28    22    23    1
    29    23    25    1
    30    23    24    1
@<TRIPOS>MOLECULE
1a30_ligand
 31 30 0 0 0
SMALL
GASTEIGER
****
libRbt.so/2013.1/901 2013/11/27
@<TRIPOS>ATOM
      1 N           4.6443   27.9365    5.8631 N.4     1  GLU1        0.2347
      2 CA          5.5163   26.7500    5.6489 C.3     1  GLU1        0.1272
      3 C           6.9735   27.1026    5.9427 C.2     1  GLU1        0.2722
      4 O           7.4252   28.2208    5.6724 O.2     1  GLU1       -0.2690
      5 CB          5.3602   26.2176    4.2223 C.3     1  GLU1        0.0763
      6 CG          5.5188   27.2759    3.1485 C.3     1  GLU1        0.1205
      7 CD          5.2569   26.7488    1.7512 C.2     1  GLU1        0.3651
      8 OE1         4.2790   25.9872    1.5688 O.co2   1  GLU1       -0.2457
      9 OE2         6.0257   27.1120    0.8324 O.co2   1  GLU1       -0.2457
     10 N           7.6866   26.1600    6.5469 N.am    2  ASP2       -0.2933
     11 CA          9.0883   26.3494    6.8960 C.3     2  ASP2        0.1600
     12 C           9.8974   25.2025    6.3170 C.2     2  ASP2        0.2413
     13 O           9.9905   24.1292    6.9171 O.2     2  ASP2       -0.2733
     14 CB          9.2361   26.4271    8.4135 C.3     2  ASP2        0.1429
     15 CG          8.5737   27.6636    8.9855 C.2     2  ASP2        0.3671
     16 OD1         9.2042   28.7355    8.9262 O.co2   2  ASP2       -0.2456
     17 OD2         7.4150   27.5793    9.4521 O.co2   2  ASP2       -0.2456
     18 N          10.4389   25.4284    5.1235 N.am    3  LEU3       -0.2953
     19 CA         11.2136   24.4175    4.4197 C.3     3  LEU3        0.1758
     20 C          12.7036   24.7065    4.4130 C.2     3  LEU3        0.3822
     21 OXT        13.4889   23.7438    4.2779 O.co2   3  LEU3       -0.2438
     22 CB         10.6966   24.2945    2.9932 C.3     3  LEU3        0.0312
     23 CG          9.2369   23.8545    3.0212 C.3     3  LEU3        0.0022
     24 CD2         8.4412   24.6249    2.0116 C.3     3  LEU3        0.0001
     25 CD1         9.1508   22.3499    2.8113 C.3     3  LEU3        0.0001
     26 O          13.0715   25.8919    4.5444 O.co2   3  LEU3       -0.2438
     27 H1          3.6870   27.6900    5.6659 H       1  GLU1        0.2007
     28 H2          4.9331   28.6811    5.2480 H       1  GLU1        0.2007
     29 H3          4.7222   28.2423    6.8204 H       1  GLU1        0.2007
     30 H           7.2467   25.2901    6.7700 H       2  ASP2        0.1500
     31 H          10.3094   26.3228    4.6955 H       3  LEU3        0.1499
@<TRIPOS>BOND
     1     1    27    1
     2     1    28    1
     3     1    29    1
     4     2     5    1
     5     2     1    1
     6     3     2    1
     7     3     4    2
     8     5     6    1
     9     6     7    1
    10     7     8   ar
    11     7     9   ar
    12    10     3   am
    13    10    30    1
    14    11    14    1
    15    11    10    1
    16    12    11    1
    17    12    13    2
    18    12    18   am
    19    14    15    1
    20    15    16   ar
    21    15    17   ar
    22    18    19    1
    23    18    31    1
    24    19    20    1
    25    19    22    1
    26    20    26   ar
    27    20    21   ar
    28    22    23    1
    29    23    25    1
    30    23    24    1
@<TRIPOS>MOLECULE
1a30_ligand
 31 30 0 0 0
SMALL
GASTEIGER
****
libRbt.so/2013.1/901 2013/11/27
@<TRIPOS>ATOM
      1 N           4.7039   27.9345    5.8667 N.4     1  GLU1        0.2347
      2 CA          5.5764   26.7483    5.6533 C.3     1  GLU1        0.1272
      3 C           7.0349   27.1049    5.9355 C.2     1  GLU1        0.2722
      4 O           7.4829   28.2224    5.6560 O.2     1  GLU1       -0.2690
      5 CB          5.4118   26.2076    4.2308 C.3     1  GLU1        0.0763
      6 CG          5.5614   27.2601    3.1501 C.3     1  GLU1        0.1205
      7 CD          5.2911   26.7248    1.7575 C.2     1  GLU1        0.3651
      8 OE1         4.3134   25.9605    1.5859 O.co2   1  GLU1       -0.2457
      9 OE2         6.0532   27.0842    0.8316 O.co2   1  GLU1       -0.2457
     10 N           7.7536   26.1669    6.5401 N.am    2  ASP2       -0.2933
     11 CA          9.1573   26.3607    6.8789 C.3     2  ASP2        0.1600
     12 C           9.9645   25.2118    6.3009 C.2     2  ASP2        0.2413
     13 O          10.0634   24.1421    6.9064 O.2     2  ASP2       -0.2733
     14 CB          9.3150   26.4470    8.3949 C.3     2  ASP2        0.1429
     15 CG          8.6543   27.6856    8.9644 C.2     2  ASP2        0.3671
     16 OD1         9.2826   28.7583    8.8950 O.co2   2  ASP2       -0.2456
     17 OD2         7.4989   27.6020    9.4392 O.co2   2  ASP2       -0.2456
     18 N          10.4977   25.4320    5.1026 N.am    3  LEU3       -0.2953
     19 CA         11.2695   24.4185    4.3993 C.3     3  LEU3        0.1758
     20 C          12.7589   24.7099    4.3812 C.2     3  LEU3        0.3822
     21 OXT        13.5449   23.7478    4.2462 O.co2   3  LEU3       -0.2438
     22 CB         10.7432   24.2866    2.9770 C.3     3  LEU3        0.0312
     23 CG          9.2844   23.8443    3.0172 C.3     3  LEU3        0.0022
     24 CD2         8.4807   24.6077    2.0086 C.3     3  LEU3        0.0001
     25 CD1         9.1996   22.3385    2.8163 C.3     3  LEU3        0.0001
     26 O          13.1256   25.8967    4.5035 O.co2   3  LEU3       -0.2438
     27 H1          3.7457   27.6852    5.6772 H       1  GLU1        0.2007
     28 H2          4.9872   28.6761    5.2455 H       1  GLU1        0.2007
     29 H3          4.7875   28.2457    6.8218 H       1  GLU1        0.2007
     30 H           7.3167   25.2976    6.7710 H       2  ASP2        0.1500
     31 H          10.3638   26.3238    4.6705 H       3  LEU3        0.1499
@<TRIPOS>BOND
     1     1    27    1
     2     1    28    1
     3     1    29    1
     4     2     5    1
     5     2     1    1
     6     3     2    1
     7     3     4    2
     8     5     6    1
     9     6     7    1
    10     7     8   ar
    11     7     9   ar
    12    10     3   am
    13    10    30    1
    14    11    14    1
    15    11    10    1
    16    12    11    1
    17    12    13    2
    18    12    18   am
    19    14    15    1
    20    15    16   ar
    21    15    17   ar
    22    18    19    1
    23    18    31    1
    24    19    20    1
    25    19    22    1
    26    20    26   ar
    27    20    21   ar
    28    22    23    1
    29    23    25    1
    30    23    24    1
@<TRIPOS>MOLECULE
1a30_ligand
 31 30 0 0 0
SMALL
GASTEIGER
****
libRbt.so/2013.1/901 2013/11/27
@<TRIPOS>ATOM
      1 N           4.6506   27.9343    5.8616 N.4     1  GLU1        0.2347
      2 CA          5.5217   26.7475    5.6459 C.3     1  GLU1        0.1272
      3 C           6.9794   27.0991    5.9387 C.2     1  GLU1        0.2722
      4 O           7.4314   28.2173    5.6687 O.2     1  GLU1       -0.2690
      5 CB          5.3642   26.2160    4.2191 C.3     1  GLU1        0.0763
      6 CG          5.5224   27.2749    3.1458 C.3     1  GLU1        0.1205
      7 CD          5.2590   26.7487    1.7484 C.2     1  GLU1        0.3651
      8 OE1         4.2805   25.9877    1.5665 O.co2   1  GLU1       -0.2457
      9 OE2         6.0272   27.1122    0.8292 O.co2   1  GLU1       -0.2457
     10 N           7.6926   26.1558    6.5416 N.am    2  ASP2       -0.2933
     11 CA          9.0946   26.3444    6.8897 C.3     2  ASP2        0.1600
     12 C           9.9027   25.1973    6.3093 C.2     2  ASP2        0.2413
     13 O           9.9957   24.1237    6.9086 O.2     2  ASP2       -0.2733
     14 CB          9.2438   26.4210    8.4071 C.3     2  ASP2        0.1429
     15 CG          8.5825   27.6576    8.9805 C.2     2  ASP2        0.3671
     16 OD1         9.2135   28.7292    8.9212 O.co2   2  ASP2       -0.2456
     17 OD2         7.4242   27.5736    9.4480 O.co2   2  ASP2       -0.2456
     18 N          10.4433   25.4237    5.1155 N.am    3  LEU3       -0.2953
     19 CA         11.2169   24.4129    4.4104 C.3     3  LEU3        0.1758
     20 C          12.7070   24.7011    4.4026 C.2     3  LEU3        0.3822
     21 OXT        13.4916   23.7381    4.2662 O.co2   3  LEU3       -0.2438
     22 CB         10.6985   24.2910    2.9843 C.3     3  LEU3        0.0312
     23 CG          9.2386   23.8517    3.0133 C.3     3  LEU3        0.0022
     24 CD2         8.4424   24.6231    2.0048 C.3     3  LEU3        0.0001
     25 CD1         9.1516   22.3473    2.8026 C.3     3  LEU3        0.0001
     26 O          13.0756   25.8863    4.5344 O.co2   3  LEU3       -0.2438
     27 H1          3.6930   27.6884    5.6651 H       1  GLU1        0.2007
     28 H2          4.9392   28.6791    5.2467 H       1  GLU1        0.2007
     29 H3          4.7294   28.2395    6.8191 H       1  GLU1        0.2007
     30 H           7.2524   25.2861    6.7646 H       2  ASP2        0.1500
     31 H          10.3138   26.3185    4.6881 H       3  LEU3        0.1499
@<TRIPOS>BOND
     1     1    27    1
     2     1    28    1
     3     1    29    1
     4     2     5    1
     5     2     1    1
     6     3     2    1
     7     3     4    2
     8     5     6    1
     9     6     7    1
    10     7     8   ar
    11     7     9   ar
    12    10     3   am
    13    10    30    1
    14    11    14    1
    15    11    10    1
    16    12    11    1
    17    12    13    2
    18    12    18   am
    19    14    15    1
    20    15    16   ar
    21    15    17   ar
    22    18    19    1
    23    18    31    1
    24    19    20    1
    25    19    22    1
    26    20    26   ar
    27    20    21   ar
    28    22    23    1
    29    23    25    1
    30    23    24    1
@<TRIPOS>MOLECULE
1a30_ligand
 31 30 0 0 0
SMALL
GASTEIGER
****
libRbt.so/2013.1/901 2013/11/27
@<TRIPOS>ATOM
      1 N          12.0104   23.6426    4.6886 N.4     1  GLU1        0.2347
      2 CA         10.9584   24.5730    4.1972 C.3     1  GLU1        0.1272
      3 C           9.8846   24.7718    5.2658 C.2     1  GLU1        0.2722
      4 O           9.5485   23.8449    6.0110 O.2     1  GLU1       -0.2690
      5 CB         10.3438   24.0520    2.8958 C.3     1  GLU1        0.0763
      6 CG          9.8792   22.6108    2.9671 C.3     1  GLU1        0.1205
      7 CD          9.3712   22.0835    1.6394 C.2     1  GLU1        0.3651
      8 OE1        10.0130   22.3561    0.5985 O.co2   1  GLU1       -0.2457
      9 OE2         8.3343   21.3821    1.6435 O.co2   1  GLU1       -0.2457
     10 N           9.3913   25.9997    5.3692 N.am    2  ASP2       -0.2933
     11 CA          8.3650   26.3456    6.3437 C.3     2  ASP2        0.1600
     12 C           7.2044   27.0057    5.6205 C.2     2  ASP2        0.2413
     13 O           7.2273   28.2102    5.3573 O.2     2  ASP2       -0.2733
     14 CB          8.9548   27.2655    7.4097 C.3     2  ASP2        0.1429
     15 CG          9.9990   26.5618    8.2519 C.2     2  ASP2        0.3671
     16 OD1         9.5978   25.8364    9.1809 O.co2   2  ASP2       -0.2456
     17 OD2        11.2104   26.6940    7.9649 O.co2   2  ASP2       -0.2456
     18 N           6.2151   26.1922    5.2625 N.am    3  LEU3       -0.2953
     19 CA          5.0487   26.6647    4.5320 C.3     3  LEU3        0.1758
     20 C           3.7963   26.7296    5.3870 C.2     3  LEU3        0.3822
     21 OXT         2.8931   27.5238    5.0478 O.co2   3  LEU3       -0.2438
     22 CB          4.8151   25.7648    3.3267 C.3     3  LEU3        0.0312
     23 CG          6.0264   25.8331    2.4030 C.3     3  LEU3        0.0022
     24 CD2         6.3750   24.4655    1.8990 C.3     3  LEU3        0.0001
     25 CD1         5.7581   26.8218    1.2780 C.3     3  LEU3        0.0001
     26 O           3.7309   25.9873    6.3882 O.co2   3  LEU3       -0.2438
     27 H1         12.7114   23.5207    3.9746 H       1  GLU1        0.2007
     28 H2         11.5946   22.7506    4.9071 H       1  GLU1        0.2007
     29 H3         12.4378   24.0260    5.5171 H       1  GLU1        0.2007
     30 H           9.7358   26.7117    4.7574 H       2  ASP2        0.1500
     31 H           6.2748   25.2235    5.5034 H       3  LEU3        0.1499
@<TRIPOS>BOND
     1     1    27    1
     2     1    28    1
     3     1    29    1
     4     2     5    1
     5     2     1    1
     6     3     2    1
     7     3     4    2
     8     5     6    1
     9     6     7    1
    10     7     8   ar
    11     7     9   ar
    12    10     3   am
    13    10    30    1
    14    11    14    1
    15    11    10    1
    16    12    11    1
    17    12    13    2
    18    12    18   am
    19    14    15    1
    20    15    16   ar
    21    15    17   ar
    22    18    19    1
    23    18    31    1
    24    19    20    1
    25    19    22    1
    26    20    26   ar
    27    20    21   ar
    28    22    23    1
    29    23    25    1
    30    23    24    1
@<TRIPOS>MOLECULE
1a30_ligand
 31 30 0 0 0
SMALL
GASTEIGER
****
libRbt.so/2013.1/901 2013/11/27
@<TRIPOS>ATOM
      1 N           4.6527   27.9411    5.8659 N.4     1  GLU1        0.2347
      2 CA          5.5181   26.7496    5.6536 C.3     1  GLU1        0.1272
      3 C           6.9783   27.0967    5.9389 C.2     1  GLU1        0.2722
      4 O           7.4339   28.2115    5.6609 O.2     1  GLU1       -0.2690
      5 CB          5.3529   26.2107    4.2304 C.3     1  GLU1        0.0763
      6 CG          5.5114   27.2629    3.1507 C.3     1  GLU1        0.1205
      7 CD          5.2405   26.7301    1.7572 C.2     1  GLU1        0.3651
      8 OE1         4.2582   25.9722    1.5832 O.co2   1  GLU1       -0.2457
      9 OE2         6.0067   27.0852    0.8330 O.co2   1  GLU1       -0.2457
     10 N           7.6899   26.1539    6.5444 N.am    2  ASP2       -0.2933
     11 CA          9.0940   26.3385    6.8861 C.3     2  ASP2        0.1600
     12 C           9.8951   25.1850    6.3091 C.2     2  ASP2        0.2413
     13 O           9.9860   24.1142    6.9140 O.2     2  ASP2       -0.2733
     14 CB          9.2492   26.4230    8.4025 C.3     2  ASP2        0.1429
     15 CG          8.5953   27.6655    8.9714 C.2     2  ASP2        0.3671
     16 OD1         9.2305   28.7341    8.9038 O.co2   2  ASP2       -0.2456
     17 OD2         7.4384   27.5889    9.4438 O.co2   2  ASP2       -0.2456
     18 N          10.4321   25.4024    5.1119 N.am    3  LEU3       -0.2953
     19 CA         11.1988   24.3845    4.4096 C.3     3  LEU3        0.1758
     20 C          12.6901   24.6665    4.3946 C.2     3  LEU3        0.3822
     21 OXT        13.4702   23.6995    4.2606 O.co2   3  LEU3       -0.2438
     22 CB         10.6745   24.2568    2.9862 C.3     3  LEU3        0.0312
     23 CG          9.2129   23.8237    3.0232 C.3     3  LEU3        0.0022
     24 CD2         8.4161   24.5928    2.0134 C.3     3  LEU3        0.0001
     25 CD1         9.1189   22.3185    2.8212 C.3     3  LEU3        0.0001
     26 O          13.0640   25.8508    4.5183 O.co2   3  LEU3       -0.2438
     27 H1          3.6933   27.6980    5.6744 H       1  GLU1        0.2007
     28 H2          4.9420   28.6813    5.2458 H       1  GLU1        0.2007
     29 H3          4.7364   28.2513    6.8214 H       1  GLU1        0.2007
     30 H           7.2469   25.2872    6.7739 H       2  ASP2        0.1500
     31 H          10.3046   26.2953    4.6801 H       3  LEU3        0.1499
@<TRIPOS>BOND
     1     1    27    1
     2     1    28    1
     3     1    29    1
     4     2     5    1
     5     2     1    1
     6     3     2    1
     7     3     4    2
     8     5     6    1
     9     6     7    1
    10     7     8   ar
    11     7     9   ar
    12    10     3   am
    13    10    30    1
    14    11    14    1
    15    11    10    1
    16    12    11    1
    17    12    13    2
    18    12    18   am
    19    14    15    1
    20    15    16   ar
    21    15    17   ar
    22    18    19    1
    23    18    31    1
    24    19    20    1
    25    19    22    1
    26    20    26   ar
    27    20    21   ar
    28    22    23    1
    29    23    25    1
    30    23    24    1
@<TRIPOS>MOLECULE
1a30_ligand
 31 30 0 0 0
SMALL
GASTEIGER
****
libRbt.so/2013.1/901 2013/11/27
@<TRIPOS>ATOM
      1 N           4.6613   27.9332    5.8609 N.4     1  GLU1        0.2347
      2 CA          5.5304   26.7453    5.6432 C.3     1  GLU1        0.1272
      3 C           6.9895   27.0955    5.9311 C.2     1  GLU1        0.2722
      4 O           7.4418   28.2130    5.6589 O.2     1  GLU1       -0.2690
      5 CB          5.3677   26.2130    4.2173 C.3     1  GLU1        0.0763
      6 CG          5.5237   27.2710    3.1428 C.3     1  GLU1        0.1205
      7 CD          5.2552   26.7443    1.7466 C.2     1  GLU1        0.3651
      8 OE1         4.2754   25.9842    1.5682 O.co2   1  GLU1       -0.2457
      9 OE2         6.0209   27.1062    0.8246 O.co2   1  GLU1       -0.2457
     10 N           7.7035   26.1519    6.5324 N.am    2  ASP2       -0.2933
     11 CA          9.1069   26.3391    6.8758 C.3     2  ASP2        0.1600
     12 C           9.9118   25.1908    6.2936 C.2     2  ASP2        0.2413
     13 O          10.0056   24.1174    6.8933 O.2     2  ASP2       -0.2733
     14 CB          9.2609   26.4166    8.3926 C.3     2  ASP2        0.1429
     15 CG          8.6029   27.6542    8.9673 C.2     2  ASP2        0.3671
     16 OD1         9.2349   28.7251    8.9054 O.co2   2  ASP2       -0.2456
     17 OD2         7.4460   27.5718    9.4386 O.co2   2  ASP2       -0.2456
     18 N          10.4488   25.4158    5.0979 N.am    3  LEU3       -0.2953
     19 CA         11.2190   24.4037    4.3910 C.3     3  LEU3        0.1758
     20 C          12.7094   24.6902    4.3782 C.2     3  LEU3        0.3822
     21 OXT        13.4926   23.7263    4.2400 O.co2   3  LEU3       -0.2438
     22 CB         10.6960   24.2814    2.9666 C.3     3  LEU3        0.0312
     23 CG          9.2357   23.8437    3.0006 C.3     3  LEU3        0.0022
     24 CD2         8.4372   24.6153    1.9942 C.3     3  LEU3        0.0001
     25 CD1         9.1464   22.3393    2.7912 C.3     3  LEU3        0.0001
     26 O          13.0797   25.8751    4.5081 O.co2   3  LEU3       -0.2438
     27 H1          3.7028   27.6882    5.6676 H       1  GLU1        0.2007
     28 H2          4.9487   28.6773    5.2445 H       1  GLU1        0.2007
     29 H3          4.7435   28.2389    6.8179 H       1  GLU1        0.2007
     30 H           7.2631   25.2827    6.7573 H       2  ASP2        0.1500
     31 H          10.3189   26.3104    4.6703 H       3  LEU3        0.1499
@<TRIPOS>BOND
     1     1    27    1
     2     1    28    1
     3     1    29    1
     4     2     5    1
     5     2     1    1
     6     3     2    1
     7     3     4    2
     8     5     6    1
     9     6     7    1
    10     7     8   ar
    11     7     9   ar
    12    10     3   am
    13    10    30    1
    14    11    14    1
    15    11    10    1
    16    12    11    1
    17    12    13    2
    18    12    18   am
    19    14    15    1
    20    15    16   ar
    21    15    17   ar
    22    18    19    1
    23    18    31    1
    24    19    20    1
    25    19    22    1
    26    20    26   ar
    27    20    21   ar
    28    22    23    1
    29    23    25    1
    30    23    24    1
@<TRIPOS>MOLECULE
1a30_ligand
 31 30 0 0 0
SMALL
GASTEIGER
****
libRbt.so/2013.1/901 2013/11/27
@<TRIPOS>ATOM
      1 N           4.6395   27.9353    5.8689 N.4     1  GLU1        0.2347
      2 CA          5.5046   26.7444    5.6519 C.3     1  GLU1        0.1272
      3 C           6.9650   27.0901    5.9385 C.2     1  GLU1        0.2722
      4 O           7.4208   28.2058    5.6650 O.2     1  GLU1       -0.2690
      5 CB          5.3393   26.2113    4.2266 C.3     1  GLU1        0.0763
      6 CG          5.4981   27.2677    3.1510 C.3     1  GLU1        0.1205
      7 CD          5.2271   26.7404    1.7554 C.2     1  GLU1        0.3651
      8 OE1         4.2446   25.9834    1.5784 O.co2   1  GLU1       -0.2457
      9 OE2         5.9933   27.0990    0.8327 O.co2   1  GLU1       -0.2457
     10 N           7.6762   26.1447    6.5403 N.am    2  ASP2       -0.2933
     11 CA          9.0804   26.3276    6.8828 C.3     2  ASP2        0.1600
     12 C           9.8812   25.1761    6.3011 C.2     2  ASP2        0.2413
     13 O           9.9718   24.1030    6.9019 O.2     2  ASP2       -0.2733
     14 CB          9.2357   26.4061    8.3994 C.3     2  ASP2        0.1429
     15 CG          8.5821   27.6464    8.9733 C.2     2  ASP2        0.3671
     16 OD1         9.2175   28.7152    8.9099 O.co2   2  ASP2       -0.2456
     17 OD2         7.4251   27.5683    9.4454 O.co2   2  ASP2       -0.2456
     18 N          10.4183   25.3982    5.1049 N.am    3  LEU3       -0.2953
     19 CA         11.1847   24.3828    4.3986 C.3     3  LEU3        0.1758
     20 C          12.6761   24.6645    4.3846 C.2     3  LEU3        0.3822
     21 OXT        13.4560   23.6979    4.2469 O.co2   3  LEU3       -0.2438
     22 CB         10.6605   24.2609    2.9746 C.3     3  LEU3        0.0312
     23 CG          9.1988   23.8280    3.0099 C.3     3  LEU3        0.0022
     24 CD2         8.4021   24.6013    2.0032 C.3     3  LEU3        0.0001
     25 CD1         9.1044   22.3237    2.8020 C.3     3  LEU3        0.0001
     26 O          13.0503   25.8482    4.5131 O.co2   3  LEU3       -0.2438
     27 H1          3.6801   27.6933    5.6764 H       1  GLU1        0.2007
     28 H2          4.9290   28.6779    5.2517 H       1  GLU1        0.2007
     29 H3          4.7233   28.2417    6.8256 H       1  GLU1        0.2007
     30 H           7.2331   25.2772    6.7664 H       2  ASP2        0.1500
     31 H          10.2911   26.2928    4.6766 H       3  LEU3        0.1499
@<TRIPOS>BOND
     1     1    27    1
     2     1    28    1
     3     1    29    1
     4     2     5    1
     5     2     1    1
     6     3     2    1
     7     3     4    2
     8     5     6    1
     9     6     7    1
    10     7     8   ar
    11     7     9   ar
    12    10     3   am
    13    10    30    1
    14    11    14    1
    15    11    10    1
    16    12    11    1
    17    12    13    2
    18    12    18   am
    19    14    15    1
    20    15    16   ar
    21    15    17   ar
    22    18    19    1
    23    18    31    1
    24    19    20    1
    25    19    22    1
    26    20    26   ar
    27    20    21   ar
    28    22    23    1
    29    23    25    1
    30    23    24    1
@<TRIPOS>MOLECULE
1a30_ligand
 31 30 0 0 0
SMALL
GASTEIGER
****
libRbt.so/2013.1/901 2013/11/27
@<TRIPOS>ATOM
      1 N           4.6504   27.9262    5.8720 N.4     1  GLU1        0.2347
      2 CA          5.5236   26.7405    5.6587 C.3     1  GLU1        0.1272
      3 C           6.9813   27.0965    5.9465 C.2     1  GLU1        0.2722
      4 O           7.4301   28.2146    5.6710 O.2     1  GLU1       -0.2690
      5 CB          5.3637   26.2031    4.2344 C.3     1  GLU1        0.0763
      6 CG          5.5169   27.2582    3.1566 C.3     1  GLU1        0.1205
      7 CD          5.2512   26.7261    1.7619 C.2     1  GLU1        0.3651
      8 OE1         4.2740   25.9622    1.5853 O.co2   1  GLU1       -0.2457
      9 OE2         6.0163   27.0877    0.8393 O.co2   1  GLU1       -0.2457
     10 N           7.6980   26.1571    6.5513 N.am    2  ASP2       -0.2933
     11 CA          9.1005   26.3501    6.8951 C.3     2  ASP2        0.1600
     12 C           9.9097   25.2027    6.3171 C.2     2  ASP2        0.2413
     13 O          10.0066   24.1315    6.9203 O.2     2  ASP2       -0.2733
     14 CB          9.2533   26.4330    8.4118 C.3     2  ASP2        0.1429
     15 CG          8.5907   27.6702    8.9820 C.2     2  ASP2        0.3671
     16 OD1         9.2192   28.7430    8.9171 O.co2   2  ASP2       -0.2456
     17 OD2         7.4337   27.5855    9.4528 O.co2   2  ASP2       -0.2456
     18 N          10.4468   25.4256    5.1210 N.am    3  LEU3       -0.2953
     19 CA         11.2209   24.4138    4.4179 C.3     3  LEU3        0.1758
     20 C          12.7104   24.7053    4.4053 C.2     3  LEU3        0.3822
     21 OXT        13.4968   23.7436    4.2707 O.co2   3  LEU3       -0.2438
     22 CB         10.6993   24.2853    2.9936 C.3     3  LEU3        0.0312
     23 CG          9.2404   23.8428    3.0280 C.3     3  LEU3        0.0022
     24 CD2         8.4400   24.6085    2.0185 C.3     3  LEU3        0.0001
     25 CD1         9.1563   22.3374    2.8233 C.3     3  LEU3        0.0001
     26 O          13.0766   25.8918    4.5316 O.co2   3  LEU3       -0.2438
     27 H1          3.6929   27.6773    5.6788 H       1  GLU1        0.2007
     28 H2          4.9358   28.6693    5.2535 H       1  GLU1        0.2007
     29 H3          4.7309   28.2352    6.8281 H       1  GLU1        0.2007
     30 H           7.2603   25.2872    6.7787 H       2  ASP2        0.1500
     31 H          10.3142   26.3185    4.6905 H       3  LEU3        0.1499
@<TRIPOS>BOND
     1     1    27    1
     2     1    28    1
     3     1    29    1
     4     2     5    1
     5     2     1    1
     6     3     2    1
     7     3     4    2
     8     5     6    1
     9     6     7    1
    10     7     8   ar
    11     7     9   ar
    12    10     3   am
    13    10    30    1
    14    11    14    1
    15    11    10    1
    16    12    11    1
    17    12    13    2
    18    12    18   am
    19    14    15    1
    20    15    16   ar
    21    15    17   ar
    22    18    19    1
    23    18    31    1
    24    19    20    1
    25    19    22    1
    26    20    26   ar
    27    20    21   ar
    28    22    23    1
    29    23    25    1
    30    23    24    1
@<TRIPOS>MOLECULE
1a30_ligand
 31 30 0 0 0
SMALL
GASTEIGER
****
libRbt.so/2013.1/901 2013/11/27
@<TRIPOS>ATOM
      1 N           4.6550   27.9289    5.8599 N.4     1  GLU1        0.2347
      2 CA          5.5262   26.7425    5.6427 C.3     1  GLU1        0.1272
      3 C           6.9837   27.0934    5.9373 C.2     1  GLU1        0.2722
      4 O           7.4360   28.2121    5.6698 O.2     1  GLU1       -0.2690
      5 CB          5.3698   26.2137    4.2147 C.3     1  GLU1        0.0763
      6 CG          5.5290   27.2745    3.1436 C.3     1  GLU1        0.1205
      7 CD          5.2667   26.7511    1.7450 C.2     1  GLU1        0.3651
      8 OE1         4.2884   25.9905    1.5608 O.co2   1  GLU1       -0.2457
      9 OE2         6.0357   27.1162    0.8271 O.co2   1  GLU1       -0.2457
     10 N           7.6963   26.1489    6.5391 N.am    2  ASP2       -0.2933
     11 CA          9.0981   26.3367    6.8887 C.3     2  ASP2        0.1600
     12 C           9.9065   25.1907    6.3067 C.2     2  ASP2        0.2413
     13 O           9.9990   24.1159    6.9041 O.2     2  ASP2       -0.2733
     14 CB          9.2460   26.4105    8.4063 C.3     2  ASP2        0.1429
     15 CG          8.5844   27.6459    8.9815 C.2     2  ASP2        0.3671
     16 OD1         9.2155   28.7176    8.9248 O.co2   2  ASP2       -0.2456
     17 OD2         7.4256   27.5612    9.4479 O.co2   2  ASP2       -0.2456
     18 N          10.4482   25.4193    5.1138 N.am    3  LEU3       -0.2953
     19 CA         11.2222   24.4098    4.4074 C.3     3  LEU3        0.1758
     20 C          12.7124   24.6979    4.4014 C.2     3  LEU3        0.3822
     21 OXT        13.4971   23.7351    4.2638 O.co2   3  LEU3       -0.2438
     22 CB         10.7051   24.2906    2.9806 C.3     3  LEU3        0.0312
     23 CG          9.2451   23.8514    3.0076 C.3     3  LEU3        0.0022
     24 CD2         8.4498   24.6247    2.0000 C.3     3  LEU3        0.0001
     25 CD1         9.1582   22.3474    2.7940 C.3     3  LEU3        0.0001
     26 O          13.0809   25.8828    4.5357 O.co2   3  LEU3       -0.2438
     27 H1          3.6976   27.6834    5.6621 H       1  GLU1        0.2007
     28 H2          4.9441   28.6749    5.2466 H       1  GLU1        0.2007
     29 H3          4.7331   28.2322    6.8180 H       1  GLU1        0.2007
     30 H           7.2559   25.2787    6.7600 H       2  ASP2        0.1500
     31 H          10.3191   26.3149    4.6880 H       3  LEU3        0.1499
@<TRIPOS>BOND
     1     1    27    1
     2     1    28    1
     3     1    29    1
     4     2     5    1
     5     2     1    1
     6     3     2    1
     7     3     4    2
     8     5     6    1
     9     6     7    1
    10     7     8   ar
    11     7     9   ar
    12    10     3   am
    13    10    30    1
    14    11    14    1
    15    11    10    1
    16    12    11    1
    17    12    13    2
    18    12    18   am
    19    14    15    1
    20    15    16   ar
    21    15    17   ar
    22    18    19    1
    23    18    31    1
    24    19    20    1
    25    19    22    1
    26    20    26   ar
    27    20    21   ar
    28    22    23    1
    29    23    25    1
    30    23    24    1
