@<TRIPOS>MOLECULE
1vjy_ligand.pdbqt
 22 25 0 0 0
SMALL
GASTEIGER

@<TRIPOS>ATOM
      1  C8         5.7570    9.7360    6.4160 C.ar  999  460999      0.1230
      2  N9         6.0450    9.7490    7.7460 N.ar  999  460999     -0.1460
      3  N10        5.2980    8.7650    8.2820 N.ar  999  460999     -0.1460
      4  C12        4.5310    8.1080    7.3580 C.ar  999  460999      0.1250
      5  C13        4.7880    8.6940    6.1240 C.ar  999  460999      0.0590
      6  C14        4.1360    8.2430    4.8810 C.ar  999  460999      0.0850
      7  C15        4.8460    8.0760    3.6640 C.ar  999  460999      0.0210
      8  C16        4.1330    7.6340    2.5200 C.ar  999  460999      0.0220
      9  C17        2.7570    7.3610    2.5750 C.ar  999  460999      0.0990
     10  N18        2.0800    6.9290    1.4570 N.ar  999  460999     -0.2420
     11  C22        2.1220    7.5590    3.8580 C.ar  999  460999      0.0990
     12  C19        0.7220    6.6790    1.5810 C.ar  999  460999      0.0990
     13  C20        0.0140    6.8450    2.7850 C.ar  999  460999      0.0220
     14  C21        0.7410    7.2900    3.9240 C.ar  999  460999      0.0220
     15  N23        2.7910    7.9880    4.9750 N.ar  999  460999     -0.2440
     16  C6         6.4150   10.7000    5.5110 C.ar  999  460999      0.1000
     17  C5         5.7100   11.4030    4.4930 C.ar  999  460999      0.0210
     18  C4         6.4390   12.3090    3.6770 C.ar  999  460999      0.0030
     19  C3         7.8310   12.4990    3.8850 C.ar  999  460999      0.0150
     20  C2         8.4580   11.7670    4.9150 C.ar  999  460999      0.0590
     21  C1         9.9220   11.9320    5.1770 C.3   999  460999      0.0520
     22  N7         7.7710   10.8830    5.7140 N.ar  999  460999     -0.2480
@<TRIPOS>BOND
     1    10    12   ar
     2    10     9   ar
     3    12    13   ar
     4     8     9   ar
     5     8     7   ar
     6     9    11   ar
     7    13    14   ar
     8     7     6   ar
     9    18    19   ar
    10    18    17   ar
    11    11    14   ar
    12    11    15   ar
    13    19    20   ar
    14    17    16   ar
    15     6    15   ar
    16     6     5    1
    17    20    21    1
    18    20    22   ar
    19    16    22   ar
    20    16     1    1
    21     5     1   ar
    22     5     4   ar
    23     1     2   ar
    24     4     3   ar
    25     2     3   ar
