@<TRIPOS>MOLECULE
1py5_ligand.pdbqt
 21 24 0 0 0
SMALL
GASTEIGER

@<TRIPOS>ATOM
      1  C1         4.6090    8.3280    5.5710 C.ar  700  PY1700      0.0380
      2  C2         5.3520    9.5570    6.0020 C.ar  700  PY1700      0.1180
      3  N3         5.4320    9.5820    7.3760 N.ar  700  PY1700     -0.1470
      4  N4         4.7780    8.4320    7.8050 N.ar  700  PY1700     -0.1460
      5  C5         4.2760    7.6560    6.7640 C.ar  700  PY1700      0.1230
      6  C8         4.2630    7.8460    4.1490 C.ar  700  PY1700     -0.0150
      7  C21        2.8860    7.4780    3.6980 C.ar  700  PY1700     -0.0040
      8  C22        2.7400    7.0350    2.2850 C.ar  700  PY1700      0.0770
      9  C28        1.6560    7.4710    4.5120 C.ar  700  PY1700      0.0530
     10  N23        3.8770    7.0140    1.4480 N.ar  700  PY1700     -0.2490
     11  C31        1.4470    6.6570    1.7660 C.ar  700  PY1700      0.0180
     12  C24        5.1370    7.3470    1.8470 C.ar  700  PY1700      0.0770
     13  C25        5.3660    7.7760    3.1880 C.ar  700  PY1700      0.0730
     14  C30        0.2790    6.6680    2.5940 C.ar  700  PY1700     -0.0030
     15  C29        0.3780    7.0750    3.9550 C.ar  700  PY1700     -0.0210
     16  C10        5.9580   10.6290    5.1760 C.ar  700  PY1700      0.0790
     17  N12        7.2200   11.0770    5.6250 N.ar  700  PY1700     -0.2470
     18  C13        7.9620   12.0110    5.0350 C.ar  700  PY1700      0.0940
     19  C14        7.4620   12.6140    3.8550 C.ar  700  PY1700     -0.0050
     20  C15        6.1610   12.1990    3.3270 C.ar  700  PY1700      0.0340
     21  C16        5.3760   11.1980    3.9700 C.ar  700  PY1700      0.0520
@<TRIPOS>BOND
     1    10    12   ar
     2    10     8   ar
     3    11     8   ar
     4    11    14   ar
     5    12    13   ar
     6     8     7   ar
     7    14    15   ar
     8    13     6   ar
     9    20    19   ar
    10    20    21   ar
    11     7     6   ar
    12     7     9   ar
    13    19    18   ar
    14    15     9   ar
    15    21    16   ar
    16     6     1    1
    17    18    17   ar
    18    16    17   ar
    19    16     2    1
    20     1     2   ar
    21     1     5   ar
    22     2     3   ar
    23     5     4   ar
    24     3     4   ar
