@<TRIPOS>MOLECULE
1bcu_protein_1bcu_ligand_vina.pdbqt
 35 39 0 0 0
SMALL
GASTEIGER

@<TRIPOS>ATOM
      1  C10       15.7560  -11.6860   19.9970 C.3     1  FSN1        0.2350
      2  N11       15.7150  -12.8400   19.0000 N.4     1  FSN1       -0.0570
      3  C12       14.9690  -12.4330   17.7740 C.3     1  FSN1        0.2360
      4  C13       15.9550  -12.7240   16.5960 C.3     1  FSN1        0.0300
      5  C14       17.3010  -12.2220   17.1350 C.3     1  FSN1        0.0360
      6  C15       17.1690  -12.6720   18.5340 C.3     1  FSN1        0.2030
      7  C16       18.1470  -12.2630   19.6350 C.3     1  FSN1        0.1240
      8  C17       18.8960  -13.3530   20.2530 C.2     1  FSN1        0.2330
      9  O18       19.8860  -13.8980   19.7910 O.2     1  FSN1       -0.2720
     10  N19       18.2770  -13.6920   21.4910 N.am    1  FSN1       -0.2830
     11  C20       17.1650  -12.8560   21.7320 C.2     1  FSN1        0.2340
     12  O21       16.3880  -13.0530   22.6500 O.2     1  FSN1       -0.2720
     13  C22       17.0980  -11.8020   20.6970 C.3     1  FSN1        0.1290
     14  H9        15.4430  -13.7340   19.3760 H       1  FSN1        0.2810
     15  C7        14.5180  -11.4670   20.8150 C.ar    1  FSN1       -0.0270
     16  C6        14.1850  -10.1740   21.2890 C.ar    1  FSN1        0.0100
     17  C5        13.0540  -10.0200   22.0970 C.ar    1  FSN1        0.0160
     18  C4        12.2840  -11.1420   22.4210 C.ar    1  FSN1        0.0070
     19  C9        12.6300  -12.4390   21.9500 C.ar    1  FSN1        0.0160
     20  C8        13.7510  -12.5810   21.1440 C.ar    1  FSN1        0.0100
     21  C3        11.0980  -11.0140   23.2500 C.2     1  FSN1        0.1020
     22  N2        10.7990   -9.8790   23.9330 N.pl3   1  FSN1       -0.3850
     23  H23       11.4200   -9.0610   23.8700 H       1  FSN1        0.1570
     24  H24        9.9480   -9.8360   24.5130 H       1  FSN1        0.1570
     25  N1        10.2160  -12.0350   23.3980 N.2     1  FSN1       -0.3850
     26  H21       10.3770  -12.7570   24.1150 H       1  FSN1        0.1570
     27  H22        9.3840  -12.0890   22.7920 H       1  FSN1        0.1570
     28  C23       18.5270  -14.8750   22.3130 C.3     1  FSN1        0.1730
     29  C24       19.1050  -14.4670   23.6410 C.ar    1  FSN1       -0.0400
     30  C25       20.0440  -13.4090   23.6980 C.ar    1  FSN1        0.0120
     31  C26       20.6240  -13.0390   24.9380 C.ar    1  FSN1        0.0430
     32  C30       20.2040  -13.7690   26.0590 C.ar    1  FSN1        0.1160
     33  C31       19.2650  -14.8090   26.0290 C.ar    1  FSN1        0.0430
     34  F29       20.7200  -13.4930   27.2710 F       1  FSN1       -0.2060
     35  C32       18.7070  -15.1610   24.8010 C.ar    1  FSN1        0.0120
@<TRIPOS>BOND
     1     4     5    1
     2     4     3    1
     3     5     6    1
     4     3     2    1
     5     6     2    1
     6     6     7    1
     7     2    14    1
     8     2     1    1
     9     7     8    1
    10     7    13    1
    11     9     8    2
    12     1    13    1
    13     1    15    1
    14     8    10   am
    15    13    11    1
    16    15    20   ar
    17    15    16   ar
    18    20    19   ar
    19    16    17   ar
    20    10    11   am
    21    10    28    1
    22    11    12    2
    23    19    18   ar
    24    17    18   ar
    25    28    29    1
    26    18    21    1
    27    27    25    1
    28    21    25    2
    29    21    22    1
    30    25    26    1
    31    29    30   ar
    32    29    35   ar
    33    30    31   ar
    34    23    22    1
    35    22    24    1
    36    35    33   ar
    37    31    32   ar
    38    33    32   ar
    39    32    34    1
@<TRIPOS>MOLECULE
1bcu_protein_1bcu_ligand_vina.pdbqt
 35 39 0 0 0
SMALL
GASTEIGER

@<TRIPOS>ATOM
      1  C10       15.7270  -12.5160   19.8310 C.3     1  FSN1        0.2350
      2  N11       16.9540  -11.6120   19.9190 N.4     1  FSN1       -0.0570
      3  C12       17.7070  -11.8890   21.1760 C.3     1  FSN1        0.2360
      4  C13       19.1660  -12.1960   20.7040 C.3     1  FSN1        0.0300
      5  C14       18.9540  -13.0870   19.4720 C.3     1  FSN1        0.0360
      6  C15       17.7820  -12.4030   18.8940 C.3     1  FSN1        0.2030
      7  C16       16.9740  -12.9750   17.7300 C.3     1  FSN1        0.1240
      8  C17       16.9720  -12.1770   16.5080 C.2     1  FSN1        0.2330
      9  O18       17.8590  -12.1390   15.6700 O.2     1  FSN1       -0.2720
     10  N19       15.7580  -11.4300   16.4500 N.am    1  FSN1       -0.2830
     11  C20       14.9460  -11.7210   17.5680 C.2     1  FSN1        0.2340
     12  O21       13.9310  -11.0930   17.8170 O.2     1  FSN1       -0.2720
     13  C22       15.5510  -12.8180   18.3540 C.3     1  FSN1        0.1290
     14  H9        16.7910  -10.6350   19.7370 H       1  FSN1        0.2810
     15  C7        14.5370  -12.1040   20.6440 C.ar    1  FSN1       -0.0270
     16  C6        14.3460  -10.7470   21.0080 C.ar    1  FSN1        0.0100
     17  C5        13.2560  -10.4100   21.8160 C.ar    1  FSN1        0.0160
     18  C4        12.3840  -11.4170   22.2470 C.ar    1  FSN1        0.0070
     19  C9        12.5870  -12.7780   21.8850 C.ar    1  FSN1        0.0160
     20  C8        13.6700  -13.1010   21.0790 C.ar    1  FSN1        0.0100
     21  C3        11.2360  -11.0980   23.0790 C.2     1  FSN1        0.1020
     22  N2        10.2570  -11.9980   23.3550 N.2     1  FSN1       -0.3850
     23  H23       10.3130  -12.9530   22.9760 H       1  FSN1        0.1570
     24  H24        9.4590  -11.7250   23.9470 H       1  FSN1        0.1570
     25  N1        11.0710   -9.8670   23.6270 N.pl3   1  FSN1       -0.3850
     26  H21       10.6000   -9.7670   24.5380 H       1  FSN1        0.1570
     27  H22       11.4160   -9.0320   23.1310 H       1  FSN1        0.1570
     28  C23       15.4410  -10.3210   15.5510 C.3     1  FSN1        0.1730
     29  C24       15.5990  -10.7560   14.1200 C.ar    1  FSN1       -0.0400
     30  C25       16.7510  -10.3650   13.3950 C.ar    1  FSN1        0.0120
     31  C26       16.8950  -10.7370   12.0340 C.ar    1  FSN1        0.0430
     32  C30       15.8520  -11.4990   11.4880 C.ar    1  FSN1        0.1160
     33  C31       14.7110  -11.9100   12.1900 C.ar    1  FSN1        0.0430
     34  F29       15.9020  -11.8770   10.1980 F       1  FSN1       -0.2060
     35  C32       14.5850  -11.5330   13.5260 C.ar    1  FSN1        0.0120
@<TRIPOS>BOND
     1    34    32    1
     2    32    31   ar
     3    32    33   ar
     4    31    30   ar
     5    33    35   ar
     6    30    29   ar
     7    35    29   ar
     8    29    28    1
     9    28    10    1
    10     9     8    2
    11    10     8   am
    12    10    11   am
    13     8     7    1
    14    11    12    2
    15    11    13    1
    16     7    13    1
    17     7     6    1
    18    13     1    1
    19     6     5    1
    20     6     2    1
    21     5     4    1
    22    14     2    1
    23     1     2    1
    24     1    15    1
    25     2     3    1
    26    15    16   ar
    27    15    20   ar
    28     4     3    1
    29    16    17   ar
    30    20    19   ar
    31    17    18   ar
    32    19    18   ar
    33    18    21    1
    34    23    22    1
    35    21    22    2
    36    21    25    1
    37    27    25    1
    38    22    24    1
    39    25    26    1
@<TRIPOS>MOLECULE
1bcu_protein_1bcu_ligand_vina.pdbqt
 35 39 0 0 0
SMALL
GASTEIGER

@<TRIPOS>ATOM
      1  C10       15.3730  -13.3350   18.3800 C.3     1  FSN1        0.2350
      2  N11       16.3890  -13.6990   17.3000 N.4     1  FSN1       -0.0570
      3  C12       15.8630  -13.3280   15.9540 C.3     1  FSN1        0.2360
      4  C13       16.9740  -12.4220   15.3310 C.3     1  FSN1        0.0300
      5  C14       17.3880  -11.5220   16.5040 C.3     1  FSN1        0.0360
      6  C15       17.3280  -12.5190   17.5890 C.3     1  FSN1        0.2030
      7  C16       17.4460  -12.1490   19.0670 C.3     1  FSN1        0.1240
      8  C17       18.5950  -12.7110   19.7710 C.2     1  FSN1        0.2330
      9  O18       19.7400  -12.2890   19.7340 O.2     1  FSN1       -0.2720
     10  N19       18.1670  -13.8520   20.5100 N.am    1  FSN1       -0.2830
     11  C20       16.7790  -14.0530   20.3480 C.2     1  FSN1        0.2340
     12  O21       16.2120  -15.0510   20.7590 O.2     1  FSN1       -0.2720
     13  C22       16.1960  -12.9260   19.5880 C.3     1  FSN1        0.1290
     14  H9        16.7720  -14.6290   17.3550 H       1  FSN1        0.2810
     15  C7        14.2250  -14.2820   18.5600 C.ar    1  FSN1       -0.0270
     16  C6        13.0630  -13.8810   19.2670 C.ar    1  FSN1        0.0100
     17  C5        12.0370  -14.8100   19.4650 C.ar    1  FSN1        0.0160
     18  C4        12.1820  -16.1090   18.9650 C.ar    1  FSN1        0.0070
     19  C9        13.3540  -16.5070   18.2650 C.ar    1  FSN1        0.0160
     20  C8        14.3650  -15.5760   18.0690 C.ar    1  FSN1        0.0100
     21  C3        11.1290  -17.0950   19.1460 C.2     1  FSN1        0.1020
     22  N2        11.2510  -18.1530   19.9880 N.pl3   1  FSN1       -0.3850
     23  H23       12.1130  -18.2780   20.5370 H       1  FSN1        0.1570
     24  H24       10.4790  -18.8290   20.0800 H       1  FSN1        0.1570
     25  N1         9.9550  -17.0180   18.4690 N.2     1  FSN1       -0.3850
     26  H21        9.2090  -17.7050   18.6500 H       1  FSN1        0.1570
     27  H22        9.8100  -16.2730   17.7730 H       1  FSN1        0.1570
     28  C23       19.0090  -14.8640   21.1480 C.3     1  FSN1        0.1730
     29  C24       19.2780  -14.4840   22.5780 C.ar    1  FSN1       -0.0400
     30  C25       20.4500  -13.7580   22.8990 C.ar    1  FSN1        0.0120
     31  C26       20.7340  -13.4250   24.2480 C.ar    1  FSN1        0.0430
     32  C30       19.7960  -13.8490   25.2000 C.ar    1  FSN1        0.1160
     33  C31       18.6220  -14.5550   24.9040 C.ar    1  FSN1        0.0430
     34  F29       19.9990  -13.5900   26.5040 F       1  FSN1       -0.2060
     35  C32       18.3600  -14.8750   23.5730 C.ar    1  FSN1        0.0120
@<TRIPOS>BOND
     1     4     3    1
     2     4     5    1
     3     3     2    1
     4     5     6    1
     5     2    14    1
     6     2     6    1
     7     2     1    1
     8     6     7    1
     9    27    25    1
    10    20    19   ar
    11    20    15   ar
    12    19    18   ar
    13     1    15    1
    14     1    13    1
    15    25    26    1
    16    25    21    2
    17    15    16   ar
    18    18    21    1
    19    18    17   ar
    20     7    13    1
    21     7     8    1
    22    21    22    1
    23    16    17   ar
    24    13    11    1
    25     9     8    2
    26     8    10   am
    27    22    24    1
    28    22    23    1
    29    11    10   am
    30    11    12    2
    31    10    28    1
    32    28    29    1
    33    29    30   ar
    34    29    35   ar
    35    30    31   ar
    36    35    33   ar
    37    31    32   ar
    38    33    32   ar
    39    32    34    1
@<TRIPOS>MOLECULE
1bcu_protein_1bcu_ligand_vina.pdbqt
 35 39 0 0 0
SMALL
GASTEIGER

@<TRIPOS>ATOM
      1  C10       15.5070  -14.9930   20.7020 C.3     1  FSN1        0.2350
      2  N11       14.9140  -16.1690   21.4720 N.4     1  FSN1       -0.0570
      3  C12       13.8420  -16.8220   20.6660 C.3     1  FSN1        0.2360
      4  C13       14.2590  -18.3280   20.5990 C.3     1  FSN1        0.0300
      5  C14       15.7720  -18.2590   20.3460 C.3     1  FSN1        0.0360
      6  C15       16.0980  -17.1140   21.2160 C.3     1  FSN1        0.2030
      7  C16       17.4660  -16.4330   21.2190 C.3     1  FSN1        0.1240
      8  C17       18.2050  -16.5020   22.4760 C.2     1  FSN1        0.2330
      9  O18       18.8510  -17.4560   22.8800 O.2     1  FSN1       -0.2720
     10  N19       18.0430  -15.2690   23.1730 N.am    1  FSN1       -0.2830
     11  C20       17.2510  -14.3760   22.4180 C.2     1  FSN1        0.2340
     12  O21       16.8490  -13.3190   22.8710 O.2     1  FSN1       -0.2720
     13  C22       16.9750  -14.9560   21.0860 C.3     1  FSN1        0.1290
     14  H9        14.6610  -15.9820   22.4290 H       1  FSN1        0.2810
     15  C7        14.7140  -13.7210   20.7130 C.ar    1  FSN1       -0.0270
     16  C6        15.1060  -12.6180   19.9130 C.ar    1  FSN1        0.0100
     17  C5        14.3750  -11.4290   19.9940 C.ar    1  FSN1        0.0160
     18  C4        13.2800  -11.3550   20.8620 C.ar    1  FSN1        0.0070
     19  C9        12.8970  -12.4620   21.6690 C.ar    1  FSN1        0.0160
     20  C8        13.6260  -13.6400   21.5770 C.ar    1  FSN1        0.0100
     21  C3        12.4930  -10.1360   20.9620 C.2     1  FSN1        0.1020
     22  N2        12.4400   -9.2130   19.9680 N.2     1  FSN1       -0.3850
     23  H23       12.9660   -9.3640   19.0970 H       1  FSN1        0.1570
     24  H24       11.8730   -8.3620   20.0860 H       1  FSN1        0.1570
     25  N1        11.7650   -9.8460   22.0700 N.pl3   1  FSN1       -0.3850
     26  H21       12.2370   -9.5350   22.9310 H       1  FSN1        0.1570
     27  H22       10.7380   -9.9370   22.0500 H       1  FSN1        0.1570
     28  C23       18.3860  -14.9850   24.5650 C.3     1  FSN1        0.1730
     29  C24       19.7860  -14.4410   24.6510 C.ar    1  FSN1       -0.0400
     30  C25       20.2690  -13.9480   25.8870 C.ar    1  FSN1        0.0120
     31  C26       21.5740  -13.3990   25.9730 C.ar    1  FSN1        0.0430
     32  C30       22.3210  -13.3910   24.7860 C.ar    1  FSN1        0.1160
     33  C31       21.8700  -13.8870   23.5560 C.ar    1  FSN1        0.0430
     34  F29       23.5610  -12.8710   24.7780 F       1  FSN1       -0.2060
     35  C32       20.5840  -14.4210   23.4890 C.ar    1  FSN1        0.0120
@<TRIPOS>BOND
     1    23    22    1
     2    16    17   ar
     3    16    15   ar
     4    22    24    1
     5    22    21    2
     6    17    18   ar
     7     5     4    1
     8     5     6    1
     9     4     3    1
    10     3     2    1
    11     1    15    1
    12     1    13    1
    13     1     2    1
    14    15    20   ar
    15    18    21    1
    16    18    19   ar
    17    21    25    1
    18    13     7    1
    19    13    11    1
    20     6     7    1
    21     6     2    1
    22     7     8    1
    23     2    14    1
    24    20    19   ar
    25    27    25    1
    26    25    26    1
    27    11    12    2
    28    11    10   am
    29     8     9    2
    30     8    10   am
    31    10    28    1
    32    35    33   ar
    33    35    29   ar
    34    33    32   ar
    35    28    29    1
    36    29    30   ar
    37    34    32    1
    38    32    31   ar
    39    30    31   ar
@<TRIPOS>MOLECULE
1bcu_protein_1bcu_ligand_vina.pdbqt
 35 39 0 0 0
SMALL
GASTEIGER

@<TRIPOS>ATOM
      1  C10       15.2470  -14.8580   18.6580 C.3     1  FSN1        0.2350
      2  N11       14.0710  -14.9520   19.6270 N.4     1  FSN1       -0.0570
      3  C12       12.8720  -15.4980   18.9270 C.3     1  FSN1        0.2360
      4  C13       12.4330  -16.7230   19.7930 C.3     1  FSN1        0.0300
      5  C14       13.7650  -17.4060   20.1320 C.3     1  FSN1        0.0360
      6  C15       14.5900  -16.2030   20.3520 C.3     1  FSN1        0.2030
      7  C16       16.1070  -16.2550   20.5250 C.3     1  FSN1        0.1240
      8  C17       16.6120  -15.7930   21.8150 C.2     1  FSN1        0.2330
      9  O18       16.6280  -16.4340   22.8540 O.2     1  FSN1       -0.2720
     10  N19       17.0830  -14.4550   21.6720 N.am    1  FSN1       -0.2830
     11  C20       16.9350  -14.0200   20.3360 C.2     1  FSN1        0.2340
     12  O21       17.1250  -12.8640   20.0020 O.2     1  FSN1       -0.2720
     13  C22       16.4830  -15.1470   19.4910 C.3     1  FSN1        0.1290
     14  H9        13.8930  -14.1290   20.1790 H       1  FSN1        0.2810
     15  C7        15.2490  -13.6840   17.7250 C.ar    1  FSN1       -0.0270
     16  C6        14.4930  -12.5230   18.0240 C.ar    1  FSN1        0.0100
     17  C5        14.4720  -11.4730   17.1010 C.ar    1  FSN1        0.0160
     18  C4        15.1920  -11.5940   15.9070 C.ar    1  FSN1        0.0070
     19  C9        15.9410  -12.7660   15.6090 C.ar    1  FSN1        0.0160
     20  C8        15.9590  -13.8010   16.5340 C.ar    1  FSN1        0.0100
     21  C3        15.2000  -10.5160   14.9320 C.2     1  FSN1        0.1020
     22  N2        15.6270  -10.6850   13.6550 N.2     1  FSN1       -0.3850
     23  H23       15.9580  -11.6070   13.3400 H       1  FSN1        0.1570
     24  H24       15.6180   -9.8890   13.0000 H       1  FSN1        0.1570
     25  N1        14.7820   -9.2640   15.2490 N.pl3   1  FSN1       -0.3850
     26  H21       14.0600   -9.1280   15.9710 H       1  FSN1        0.1570
     27  H22       15.1870   -8.4480   14.7660 H       1  FSN1        0.1570
     28  C23       17.4310  -13.5180   22.7380 C.3     1  FSN1        0.1730
     29  C24       18.8940  -13.6370   23.0720 C.ar    1  FSN1       -0.0400
     30  C25       19.2920  -13.7730   24.4230 C.ar    1  FSN1        0.0120
     31  C26       20.6690  -13.8500   24.7550 C.ar    1  FSN1        0.0430
     32  C30       21.5680  -13.7910   23.6800 C.ar    1  FSN1        0.1160
     33  C31       21.1960  -13.6720   22.3340 C.ar    1  FSN1        0.0430
     34  F29       22.8920  -13.8390   23.9100 F       1  FSN1       -0.2060
     35  C32       19.8380  -13.5960   22.0270 C.ar    1  FSN1        0.0120
@<TRIPOS>BOND
     1    24    22    1
     2    23    22    1
     3    22    21    2
     4    27    25    1
     5    21    25    1
     6    21    18    1
     7    25    26    1
     8    19    18   ar
     9    19    20   ar
    10    18    17   ar
    11    20    15   ar
    12    17    16   ar
    13    15    16   ar
    14    15     1    1
    15     1    13    1
    16     1     2    1
    17     3     2    1
    18     3     4    1
    19    13    11    1
    20    13     7    1
    21     2    14    1
    22     2     6    1
    23     4     5    1
    24    12    11    2
    25     5     6    1
    26    11    10   am
    27     6     7    1
    28     7     8    1
    29    10     8   am
    30    10    28    1
    31     8     9    2
    32    35    33   ar
    33    35    29   ar
    34    33    32   ar
    35    28    29    1
    36    29    30   ar
    37    32    34    1
    38    32    31   ar
    39    30    31   ar
